


 20 19  0  0001  0  0  0  0  0999 V2000
    9.7942    1.0950    0.0000 O   0  0  0  0  0  0  0  0  0  0  0
    8.9282   -0.4050    0.0000 O   0  0  0  0  0  0  0  0  0  0  0
    4.5981    1.0950    0.0000 N   0  0  0  0  0  0  0  0  0  0  0
    8.0622    2.0950    0.0000 N   0  0  0  0  0  0  0  0  0  0  0
    3.7321   -0.4050    0.0000 N   0  0  0  0  0  0  0  0  0  0  0
    2.8660    1.0950    0.0000 N   0  0  0  0  0  0  0  0  0  0  0
    7.1962    0.5950    0.0000 C   0  0  0  0  0  0  0  0  0  0  0
    6.3301    1.0950    0.0000 C   0  0  0  0  0  0  0  0  0  0  0
    8.0622    1.0950    0.0000 C   0  0  0  0  0  0  0  0  0  0  0
    5.4641    0.5950    0.0000 C   0  0  0  0  0  0  0  0  0  0  0
    8.9282    0.5950    0.0000 C   0  0  0  0  0  0  0  0  0  0  0
    3.7321    0.5950    0.0000 C   0  0  0  0  0  0  0  0  0  0  0
    2.8660   -0.9050    0.0000 C   0  0  0  0  0  0  0  0  0  0  0
    2.8660   -1.9050    0.0000 C   0  0  0  0  0  0  0  0  0  0  0
    2.0000   -2.4050    0.0000 C   0  0  0  0  0  0  0  0  0  0  0
    4.5981    1.7150    0.0000 H   0  0  0  0  0  0  0  0  0  0  0
    7.5252    2.4050    0.0000 H   0  0  0  0  0  0  0  0  0  0  0
    8.5991    2.4050    0.0000 H   0  0  0  0  0  0  0  0  0  0  0
    2.3291    0.7850    0.0000 H   0  0  0  0  0  0  0  0  0  0  0
    2.8660    1.7150    0.0000 H   0  0  0  0  0  0  0  0  0  0  0
  1 11  1  0
  2 11  2  0
  3 10  1  0
  3 12  1  0
  3 16  1  0
  9  4  1  6
  4 17  1  0
  4 18  1  0
  5 12  2  0
  5 13  1  0
  6 12  1  0
  6 19  1  0
  6 20  1  0
  7  8  1  0
  7  9  1  0
  8 10  1  0
  9 11  1  0
 13 14  1  0
 14 15  1  0
M  END

> <PUBCHEM_BONDANNOTATIONS>
9  4  6

> <StdInChI>
InChI=1S/C9H20N4O2/c1-2-5-12-9(11)13-6-3-4-7(10)8(14)15/h7H,2-6,10H2,1H3,(H,14,15)(H3,11,12,13)/t7-/m0/s1

> <StdInChIKey>
AOMXURITGZJPKB-ZETCQYMHSA-N

> <AuxInfo>
1/1/N:15,14,8,7,13,10,9,11,12,4,6,5,3,1,2/E:(14,15)/it:im/rA:35cOONNNNCCCCCCCCCHHHHHHHHHHHHHHHHHHHH/rB:;;;;;;s7;n4s7;s3s8;s1d2s9;s3d5s6;s5;s13;s14;s7;s7;s8;s8;s9;s10;s10;s3;s4;s4;s13;s13;s14;s14;s15;s15;s15;s6;s6;s1;/rC:9.7942,1.095,0;8.9282,-.405,0;4.5981,1.095,0;8.0622,2.095,0;3.7321,-.405,0;2.866,1.095,0;7.1962,.595,0;6.3301,1.095,0;8.0622,1.095,0;5.4641,.595,0;8.9282,.595,0;3.7321,.595,0;2.866,-.905,0;2.866,-1.905,0;2,-2.405,0;7.5947,.1201,0;6.7976,.1201,0;6.7287,1.5699,0;5.9316,1.5699,0;7.5252,1.405,0;5.8626,.1201,0;5.0656,.1201,0;4.5981,1.715,0;7.5252,2.405,0;8.5991,2.405,0;2.654,-.3224,0;2.2554,-1.0127,0;3.0781,-2.4876,0;3.4766,-1.7973,0;1.69,-1.8681,0;1.4631,-2.715,0;2.31,-2.9419,0;2.3291,.785,0;2.866,1.715,0;10.3312,.785,0;

> <Formula>
C9 H20 N4 O2

> <Mw>
216.2807

> <SMILES>
O([H])C([C@]([H])(C([H])([H])C([H])([H])C([H])([H])N([H])/C(/N([H])[H])=N/C([H])([H])C([H])([H])C([H])([H])[H])N([H])[H])=O

> <CSID>
394346

$$$$
